Circuit: * C:\Users\ngila\Documents\Cours\STI\TC1_Electronique\Autonomie\Draft2.asc

Warning: Multiple definitions of model "nmos_12" Type: EKV
Warning: Multiple definitions of model "pmos_12" Type: EKV
Direct Newton iteration for .op point succeeded.

Date: Sun Dec 14 15:11:03 2025
Total elapsed time: 6.166 seconds.

tnom = 27
temp = 27
method = modified trap
totiter = 253389
traniter = 253362
tranpoints = 90971
accept = 90761
rejected = 210
matrix size = 34
fillins = 4
solver = Normal
Thread vector: 41.6/29.2[2] 6.9/5.1[2] 1.3/2.8[1] 0.4/1.3[1]  2592/500
Matrix Compiler1: 1.95 KB object code size  1.1/0.5/[0.4]
Matrix Compiler2: off  [0.5]/0.9/0.6

