Circuit: * C:\Users\ngila\Documents\Cours\STI\TC1_Electronique\Autonomie\STI_TC1_Auto_1-Source-commune.asc


Date: Tue Dec 16 14:20:43 2025
Total elapsed time: 0.250 seconds.

tnom = 27
temp = 27
method = trap
totiter = 66
traniter = 0
tranpoints = 0
accept = 0
rejected = 0
matrix size = 5
fillins = 0
solver = Normal
Matrix Compiler1: 114 bytes object code size
Matrix Compiler2: 301 bytes object code size
