Circuit: * C:\Users\ngila\Documents\Cours\STI\TC1_Electronique\Autonomie\STI_TC1_Auto_3-CMOS-inverter.asc


Date: Tue Dec 16 14:29:36 2025
Total elapsed time: 0.191 seconds.

tnom = 27
temp = 27
method = trap
totiter = 516
traniter = 0
tranpoints = 0
accept = 0
rejected = 0
matrix size = 5
fillins = 0
solver = Normal
Matrix Compiler1: 132 bytes object code size  0.1/0.1/[0.1]
Matrix Compiler2: 335 bytes object code size  0.1/0.2/[0.1]

