Circuit: * C:\Users\ngila\Documents\Cours\STI\TC1_Electronique\Autonomie\STI_TC1_Auto_5-Multiplexer.asc

Warning: Multiple definitions of model "nmos_12" Type: EKV
Warning: Multiple definitions of model "pmos_12" Type: EKV
Direct Newton iteration for .op point succeeded.

Date: Fri Nov 21 17:36:24 2025
Total elapsed time: 0.341 seconds.

tnom = 27
temp = 27
method = modified trap
totiter = 2130
traniter = 2090
tranpoints = 1046
accept = 1046
rejected = 0
matrix size = 69
fillins = 16
solver = Normal
Thread vector: 91.8/29.7[6] 36.0/20.6[6] 4.6/2.8[4] 0.4/1.5[1]  2592/500
Matrix Compiler1: 5.30 KB object code size  9.3/4.7/[2.5]
Matrix Compiler2: 6.78 KB object code size  6.7/4.3/[0.9]

