Circuit: * C:\Users\ngila\Documents\Cours\STI\TC1_Electronique\Autonomie\STI_TC1_Auto_4-NE55.asc

Direct Newton iteration for .op point succeeded.

Date: Tue Dec 16 14:37:21 2025
Total elapsed time: 0.453 seconds.

tnom = 27
temp = 27
method = modified trap
totiter = 5635
traniter = 5627
tranpoints = 2331
accept = 2258
rejected = 73
matrix size = 14
fillins = 0
solver = Normal
Matrix Compiler1: 384 bytes object code size  0.2/0.2/[0.1]
Matrix Compiler2: 776 bytes object code size  0.2/0.2/[0.2]

