Circuit: * C:\Users\ngila\Documents\Cours\STI\TC1_Electronique\Autonomie\STI_TC1_Auto_3-Ampli-op.asc

.OP point found by inspection.
Ignoring empty pin current: Ix(u1:1)
Ignoring empty pin current: Ix(u1:2)
Ignoring empty pin current: Ix(u2:1)
Ignoring empty pin current: Ix(u2:2)
Ignoring empty pin current: Ix(u1:1)
Ignoring empty pin current: Ix(u1:2)
Ignoring empty pin current: Ix(u2:1)
Ignoring empty pin current: Ix(u2:2)

Date: Tue Dec 16 14:27:27 2025
Total elapsed time: 0.315 seconds.

tnom = 27
temp = 27
method = modified trap
totiter = 10062
traniter = 10062
tranpoints = 5032
accept = 5031
rejected = 1
matrix size = 8
fillins = 1
solver = Normal
Matrix Compiler1:      14 opcodes  0.2/[0.1]/0.1
Matrix Compiler2: 472 bytes object code size  0.2/0.2/[0.1]

