Circuit: * C:\Users\ngila\Documents\Cours\STI\TC1_Electronique\Autonomie\STI_TC1_Auto_1-PMOS.asc

.OP point found by inspection.
.step vgd=0
.step vgd=1
.step vgd=2
.step vgd=3
.step vgd=4
.step vgd=5

Date: Tue Dec 16 14:06:02 2025
Total elapsed time: 0.228 seconds.

tnom = 27
temp = 27
method = trap
totiter = 1459
traniter = 0
tranpoints = 0
accept = 0
rejected = 0
matrix size = 4
fillins = 0
solver = Normal
Matrix Compiler1:       7 opcodes  0.1/[0.1]/0.1
Matrix Compiler2: off  [0.1]/0.1/0.1

