Circuit: * C:\Users\ngila\Documents\Cours\STI\TC1_Electronique\Autonomie\STI_TC1_Auto_2-Drain-commun.asc


Date: Tue Dec 16 14:26:47 2025
Total elapsed time: 0.160 seconds.

tnom = 27
temp = 27
method = trap
totiter = 188
traniter = 0
tranpoints = 0
accept = 0
rejected = 0
matrix size = 5
fillins = 0
solver = Normal
Matrix Compiler1: 204 bytes object code size  0.1/0.1/[0.1]
Matrix Compiler2: off  [0.1]/0.1/0.1

