Circuit: * C:\Users\ngila\Documents\Cours\STI\TC1_Electronique\Autonomie\STI_TC1_Auto_5-Additionneur.asc

Warning: Multiple definitions of model "nmos_12" Type: EKV
Warning: Multiple definitions of model "pmos_12" Type: EKV
WARNING: Less than two connections to node CO.  This node is used by A1.
WARNING: Less than two connections to node S.  This node is used by A2.
Direct Newton iteration for .op point succeeded.

Date: Sat Nov 08 11:11:52 2025
Total elapsed time: 0.350 seconds.

tnom = 27
temp = 27
method = modified trap
totiter = 2140
traniter = 2090
tranpoints = 1046
accept = 1046
rejected = 0
matrix size = 67
fillins = 4
solver = Normal
Thread vector: 88.1/21.2[6] 16.6/4.8[6] 2.7/2.6[1] 0.4/1.0[1]  2592/500
Matrix Compiler1: 4.33 KB object code size  2.2/1.0/[0.8]
Matrix Compiler2: 6.48 KB object code size  1.3/3.7/[0.8]

